"""
 Reduced Model for small methyl esters from methyl formate to methyl pentanoate
 Mai 2012

 A Comparative Study of the Chemical Kinetic Characteristics of Small Methyl Esters in Diffusion Flame Extinction

 Pascal Dievart, Sang Hee Won, Jing Gong, Stephen Dooley, and Yiguang Ju

 Princeton University, Department of Mechanical and Aerospace Engineering

 Accepted for Presentation at the 34th International Symposium on Combustion

 Model derived from the Dievart et al's Methyl Decanoate oxidation model
 Reactions of Methyl Hexanoate, Methyl Pentanoate and Methyl Propanoate have been added
 Initial H2/O2 subset substituted by the updated H2/O2 model of Burke et al. (IJCK, 2011)

 Pressure dependence of Unimolecular Fuel Decomposition Reactions of Methyl Ethanoate,
 Methyl Propanoate, Methyl Pentanaote, and Methyl Hexanoate has been introduced


****************************************************************************************!
                                  CHEMISTRY INPUT FILE                                  !
****************************************************************************************!

 Reduced Model for small methyl esters from methyl formate to methyl pentanoate
 Mai 2012

 A Comparative Study of the Chemical Kinetic Characteristics of Small Methyl Esters in Diffusion Flame Extinction

 Pascal Dievart, Sang Hee Won, Jing Gong, Stephen Dooley, and Yiguang Ju

 Princeton University, Department of Mechanical and Aerospace Engineering

 Accepted for Presentation at the 34th International Symposium on Combustion

****************************************************************************************!
                                    THERMO DATABASE                                     !
****************************************************************************************!

"""

units(length='cm', time='s', quantity='mol', act_energy='cal/mol')

ideal_gas(name='gas',
          elements="C H N O Ar He",
          species="""H               H2              O
                     O2              OH              H2O
                     N2              HO2             H2O2
                     AR              HE              CO
                     CO2             CH2O            HCO
                     HO2CHO          O2CHO           HOCHO
                     OCHO            HOCH2O2H        HOCH2O2
                     OCH2O2H         HOCH2O          CH3OH
                     CH2OH           CH3O            CH3O2H
                     CH3O2           CH4             CH3
                     CH2             CH2(S)          C
                     CH              CH2O2H          C2H6
                     C2H5            C2H4            C2H3
                     C2H2            C2H             CH3CHO
                     CH3CO           CH2CHO          CH2CO
                     HCCO            HCCOH           CH3CO3H
                     CH3CO3          CH3CO2          C2H5OH
                     C2H5O           PC2H4OH         SC2H4OH
                     O2C2H4OH        C2H5O2H         C2H5O2
                     C2H4O2H         C2H4O1-2        C2H3O1-2
                     CH3COCH3        CH3COCH2        CH3COCH2O2
                     CH3COCH2O2H     CH3COCH2O       C2H3CHO
                     C2H3CO          C2H5CHO         C2H5CO
                     CH3OCH3         CH3OCH2         CH3OCH2O2
                     CH2OCH2O2H      CH3OCH2O2H      CH3OCH2O
                     O2CH2OCH2O2H    HO2CH2OCHO      C2H3OOH
                     C3H8            IC3H7           NC3H7
                     C3H6            C3H5-A          C3H5-S
                     C3H5-T          C3H4-P          C3H4-A
                     C3H3            C3H2            C3H5O
                     C3H6OOH1-2      C3H6OOH1-3      C3H6OOH2-1
                     C3H6OOH1-2O2    C3H6OOH1-3O2    C3H6OOH2-1O2
                     C3H6OOH2-2      NC3H7O2H        IC3H7O2H
                     NC3H7O2         IC3H7O2         NC3H7O
                     IC3H7O          C3H6O1-2        C3H6O1-3
                     C3KET12         C3KET13         C3KET21
                     C3H51-2,3OOH    C3H52-1,3OOH    C3H6OH
                     HOC3H6O2        CH3CHCO         AC3H5OOH
                     CH2CH2CHO       C3H5OH          C4H10
                     C4H8-1          C4H8-2          PC4H9
                     SC4H9           C4H71-1         C4H71-2
                     C4H71-3         C4H71-4         C4H72-2
                     C4H6            PC4H9O2H        SC4H9O2H
                     PC4H9O2         SC4H9O2         PC4H9O
                     SC4H9O          C4H7O           C4H8O1-2
                     C4H8O1-3        C4H8O1-4        C4H8O2-3
                     PC4H8OH         SC4H8OH         C4H8OH-1O2
                     C4H8OH-2O2      C4H8OOH1-1      C4H8OOH1-2
                     C4H8OOH1-3      C4H8OOH1-4      C4H8OOH2-1
                     C4H8OOH2-2      C4H8OOH2-3      C4H8OOH2-4
                     C4H8OOH1-2O2    C4H8OOH1-3O2    C4H8OOH1-4O2
                     C4H8OOH2-1O2    C4H8OOH2-3O2    C4H8OOH2-4O2
                     NC4KET12        NC4KET13        NC4KET14
                     NC4KET21        NC4KET23        NC4KET24
                     C2H5COCH3       C2H5COCH2       CH2CH2COCH3
                     CH3CHCOCH3      C2H3COCH3       CH3CHOOCOCH3
                     CH2CHOOHCOCH3   NC3H7CHO        NC3H7CO
                     C3H6CHO-1       C3H6CHO-2       C3H6CHO-3
                     C2H5CHCO        SC3H5CHO        SC3H5CO
                     AC3H5CHO        AC3H5CO         C2H3CHCHO
                     IC4H10          IC4H9           TC4H9
                     IC4H8           IC4H7           TC4H9O2
                     IC4H9O2         TC4H8O2H-I      IC4H8O2H-I
                     IC4H8O2H-T      IC4H8O          CC4H8O
                     IC4H9O          TC4H9O          IC4H9O2H
                     TC4H9O2H        IC4H7O          IC4H8OH
                     IO2C4H8OH       IC3H7CHO        TC3H6CHO
                     IC3H7CO         IC3H6CHO        TC4H8OOH-IO2
                     IC4H8OOH-IO2    IC4H8OOH-TO2    IC4KETII
                     IC4KETIT        IC4H7OH         IC4H6OH
                     IC3H5CHO        IC3H5CO         TC3H6OCHO
                     IC3H6CO         IC4H7OOH        TC3H6OHCHO
                     TC3H6OH         IC3H5OH         TC3H6O2CHO
                     TC3H6O2HCO      IC3H5O2HCHO     CH2CCH2OH
                     TC4H8CHO        O2C4H8CHO       O2HC4H8CO
                     TIC4H7Q2-I      IIC4H7Q2-T      IIC4H7Q2-I
                     NC5H12          C5H11-1         C5H11-2
                     C5H11-3         C5H10-1         C5H10-2
                     C5H81-3         C5H91-3         C5H91-4
                     C5H91-5         C5H92-4         C5H92-5
                     C5H9O1-3        C5H9O2-4        C5H10OH-1
                     C5H10OH-2       O2C5H10OH-1     O2C5H10OH-2
                     C5H81-4         C5H11O2H-1      C5H11O2H-2
                     C5H11O2H-3      C5H11O2-1       C5H11O2-2
                     C5H11O2-3       C5H11O-1        C5H11O-2
                     C5H11O-3        C5H10OOH1-2     C5H10OOH1-3
                     C5H10OOH1-4     C5H10OOH1-5     C5H10OOH2-1
                     C5H10OOH2-3     C5H10OOH2-4     C5H10OOH2-5
                     C5H10OOH3-2     C5H10OOH3-1     C5H10O1-2
                     C5H10O1-3       C5H10O1-4       C5H10O1-5
                     C5H10O2-3       C5H10O2-4       C5H10OOH1-2O2
                     C5H10OOH1-3O2   C5H10OOH1-4O2   C5H10OOH1-5O2
                     C5H10OOH2-1O2   C5H10OOH2-3O2   C5H10OOH2-4O2
                     C5H10OOH2-5O2   C5H10OOH3-1O2   C5H10OOH3-2O2
                     NC5KET12        NC5KET13        NC5KET14
                     NC5KET15        NC5KET21        NC5KET23
                     NC5KET24        NC5KET25        NC5KET31
                     NC5KET32        NC3H7COCH3      NC3H7COCH2
                     C3H6COCH3-1     C3H6COCH3-2     C3H6COCH3-3
                     C2H5COC2H5      C2H5COC2H4P     C2H5COC2H4S
                     C2H5COC2H3      PC2H4COC2H3     SC2H4COC2H3
                     NC4H9CHO        NC4H9CO         C4H8CHO-1
                     C4H8CHO-2       C4H8CHO-3       C4H8CHO-4
                     NC6H14          C6H13-1         C6H13-2
                     C6H13-3         C6H12-1         C6H12-2
                     C6H12-3         C6H111-3        C6H111-4
                     C6H111-5        C6H111-6        C6H112-4
                     C6H112-5        C6H112-6        C6H113-1
                     C6H11O1-3       C6H11O2-4       C6H12O1-2
                     C6H12O1-3       C6H12O1-4       C6H12O1-5
                     C6H12O2-3       C6H12O2-4       C6H12O2-5
                     C6H12O3-4       C6H13O2H-1      C6H13O2H-2
                     C6H13O2H-3      C6H13O2-1       C6H13O2-2
                     C6H13O2-3       C6H12OOH1-2     C6H12OOH1-3
                     C6H12OOH1-4     C6H12OOH1-5     C6H12OOH2-1
                     C6H12OOH2-3     C6H12OOH2-4     C6H12OOH2-5
                     C6H12OOH2-6     C6H12OOH3-1     C6H12OOH3-2
                     C6H12OOH3-4     C6H12OOH3-5     C6H12OOH3-6
                     C6H12OOH1-2O2   C6H12OOH1-3O2   C6H12OOH1-4O2
                     C6H12OOH1-5O2   C6H12OOH2-1O2   C6H12OOH2-3O2
                     C6H12OOH2-4O2   C6H12OOH2-5O2   C6H12OOH2-6O2
                     C6H12OOH3-1O2   C6H12OOH3-2O2   C6H12OOH3-4O2
                     C6H12OOH3-5O2   C6H12OOH3-6O2   NC6KET12
                     NC6KET13        NC6KET14        NC6KET15
                     NC6KET21        NC6KET23        NC6KET24
                     NC6KET25        NC6KET26        NC6KET31
                     NC6KET32        NC6KET34        NC6KET35
                     NC6KET36        C6H13O-1        C6H13O-2
                     C6H13O-3        C6H12OH-1       C6H12OH-2
                     C6H12OH-3       O2C6H12OH-1     O2C6H12OH-2
                     O2C6H12OH-3     NC7H16          C7H15-1
                     C7H15-2         C7H15-3         C7H15-4
                     C7H14-1         C7H14-2         C7H14-3
                     C7H131-3        C7H131-4        C7H131-5
                     C7H131-6        C7H131-7        C7H132-4
                     C7H132-5        C7H132-6        C7H132-7
                     C7H133-1        C7H133-5        C7H133-6
                     C7H133-7        C7H13O1-3       C7H13O2-4
                     C7H13O3-5       C7H15O2-1       C7H15O2-2
                     C7H15O2-3       C7H15O2-4       C7H15O2H-1
                     C7H15O2H-2      C7H15O2H-3      C7H15O2H-4
                     C7H15O-1        C7H15O-2        C7H15O-3
                     C7H15O-4        C7H14OOH1-2     C7H14OOH1-3
                     C7H14OOH1-4     C7H14OOH1-5     C7H14OOH2-1
                     C7H14OOH2-3     C7H14OOH2-4     C7H14OOH2-5
                     C7H14OOH2-6     C7H14OOH3-1     C7H14OOH3-2
                     C7H14OOH3-4     C7H14OOH3-5     C7H14OOH3-6
                     C7H14OOH3-7     C7H14OOH4-1     C7H14OOH4-2
                     C7H14OOH4-3     C7H14OOH1-2O2   C7H14OOH1-3O2
                     C7H14OOH1-4O2   C7H14OOH1-5O2   C7H14OOH2-1O2
                     C7H14OOH2-3O2   C7H14OOH2-4O2   C7H14OOH2-5O2
                     C7H14OOH2-6O2   C7H14OOH3-1O2   C7H14OOH3-2O2
                     C7H14OOH3-4O2   C7H14OOH3-5O2   C7H14OOH3-6O2
                     C7H14OOH3-7O2   C7H14OOH4-1O2   C7H14OOH4-2O2
                     C7H14OOH4-3O2   C7H14O1-2       C7H14O1-3
                     C7H14O1-4       C7H14O1-5       C7H14O2-3
                     C7H14O2-4       C7H14O2-5       C7H14O2-6
                     C7H14O3-4       C7H14O3-5       NC7KET12
                     NC7KET13        NC7KET14        NC7KET15
                     NC7KET21        NC7KET23        NC7KET24
                     NC7KET25        NC7KET26        NC7KET31
                     NC7KET32        NC7KET34        NC7KET35
                     NC7KET36        NC7KET37        NC7KET41
                     NC7KET42        NC7KET43        C7H14OH-1
                     C7H14OH-2       C7H14OH-3       O2C7H14OH-1
                     O2C7H14OH-2     O2C7H14OH-3     NC5H11CHO
                     NC5H11CO        C5H10CHO-1      C5H10CHO-2
                     C5H10CHO-3      C5H10CHO-4      C5H10CHO-5
                     C4H7CHO1-4      C4H7CO1-4       C4H6CHO1-43
                     C4H6CHO1-44     NC4H9COCH3      NC4H9COCH2
                     C4H8COCH3-1     C4H8COCH3-2     C4H8COCH3-3
                     C4H8COCH3-4     C4H7OOH1-4      C4H7O1-4
                     C5H9OOH1-4      C5H9O1-4        C5H9OOH1-5
                     C5H9O1-5        C6H11OOH1-4     C6H11O1-4
                     C6H11OOH1-5     C6H11O1-5       C5H91-1
                     C4H7CHO1-1      C4H7CO1-1       C4H6CHO1-14
                     C4H6CHO1-13     NC3H7COC2H5     C3H6COC2H5-1
                     C3H6COC2H5-2    C3H6COC2H5-3    NC3H7COC2H4P
                     NC3H7COC2H4S    CHCHCHO         C6H101-3
                     C6H101-4        C6H101-5        C6H102-4
                     ETES1           MVOX            VTHF
                     EDHF            ETC6            KES1
                     C6H111O2H-3     C6H111O2H-4     C6H111O2H-5
                     C6H111O2H-6     C6H112O2H-4     C6H112O2H-5
                     C6H112O2H-6     C6H113O2H-2     C6H113O2H-1
                     NC6D1KET34      NC6D1KET35      NC6D1KET36
                     NC6D1KET43      NC6D1KET45      NC6D1KET46
                     NC6D1KET53      NC6D1KET54      NC6D1KET56
                     NC6D1KET63      NC6D1KET64      NC6D1KET65
                     NC6D2KET45      NC6D2KET46      NC6D2KET54
                     NC6D2KET56      NC6D2KET64      NC6D2KET65
                     NC6D3KET12      NC6D3KET21      C6H112O2-1
                     C6H111O2-3      C6H111O2-4      C6H111O2-5
                     C6H111O2-6      C6H112O2-4      C6H112O2-5
                     C6H112O2-6      C6H113O2-1      C6H113O2-2
                     C6H101OOH3-4    C6H101OOH3-5    C6H101OOH3-6
                     C6H101OOH4-3    C6H101OOH4-5    C6H101OOH4-6
                     C6H101OOH5-3    C6H101OOH5-4    C6H101OOH5-6
                     C6H101OOH6-3    C6H101OOH6-4    C6H101OOH6-5
                     C6H101OOH3-4O2  C6H101OOH3-5O2  C6H101OOH3-6O2
                     C6H101OOH4-3O2  C6H101OOH4-5O2  C6H101OOH4-6O2
                     C6H101OOH5-3O2  C6H101OOH5-4O2  C6H101OOH5-6O2
                     C6H101OOH6-3O2  C6H101OOH6-4O2  C6H101OOH6-5O2
                     C6H102OOH5-4    C6H103OOH1-2    C6H102OOH4-5
                     C6H102OOH4-6    C6H102OOH5-6    C6H102OOH6-4
                     C6H102OOH6-5    C6H103OOH2-1    C6H102OOH4-5O2
                     C6H102OOH4-6O2  C6H102OOH5-4O2  C6H102OOH5-6O2
                     C6H102OOH6-4O2  C6H102OOH6-5O2  C6H103OOH2-1O2
                     C6H103OOH1-2O2  C2H3COC3H7      MH
                     MH6J            MH5J            MH4J
                     MH3J            MH2J            MHMJ
                     HAOJ            MH5D            MH5D2J
                     MH5D4J          MH4D            MH4D2J
                     MH3D            MH3D2J          MH4D3J
                     MH2D            MH6*O           MH6J*O
                     MH3D5D          MF              MF5J
                     MF4J            MF3J            MF2J
                     MFMJ            FAOJ            MF4D
                     MF4D2J          MF4D3J          MF3D
                     MF3D2J          MF2D            MF5*O
                     MF5J*O          MF2D4D          CH3CHCHCHCO
                     MB              MB2J            MB3J
                     MB4J            MBMJ            MB2D
                     MB3D            C5H7O2          MB2O
                     MB3O            MB4O            MBMO
                     MB4*O           MBM*O           MB4J*O
                     MBMJ*O          MB2OH3J         MB3OH4J
                     MB2OH3OO        MB3OH4OO        BAOJ
                     BA4J            MP              MP3J
                     MP2J            MPMJ            MP2D
                     MP2D3J          MP2D2J          MP2DMJ
                     MP2OH3J         MP2OH3OO        MP3*O
                     MP3J*O          ME              ME2J
                     MEMJ            ME2*O           ME2J*O
                     CH3OCHO         CH2OCHO         CH3OCO
                     OCH2OCHO        CH3OC*OO        CH3OC*OOOH
                     CH3OC*OOO       HOOCH2OCHO      OOCH2OCHO
                     OOCH2OC*OOOH    HOOCH2OC*OOO    O*CHOC*OOOH
                     HOOCH2OC*O      CH2OC*OOOH      CYOCH2OC*O
                     HOCH2OCO        CHOOCO          EF
                     EFP             EFS             EFF
                     CH3CHOCHO       CH2CHCHCO       CJHCHCHCO
                     CH3CHCHO        CH2COOH         C2H3CO2
                     C4H72-1         C5H8            MD
                     MD10J           MD9J            MD8J
                     MD7J            MD6J            MD5J
                     MD4J            MD3J            MD2J
                     MDMJ            DAOJ            MD2D
                     MD3D            MD4D            MD5D
                     MD6D            MD7D            MD8D
                     MD9D            MD9D2J          MD9D8J
                     MD8D2J          MD8D7J          MD7D2J
                     MD7D6J          MD6D2J          MD6D5J
                     MD5D2J          MD5D4J          MD4D2J
                     MD4D3J          MD3D2J          MD10O
                     MD9O            MD8O            MD7O
                     MD6O            MD5O            MD4O
                     MD3O            MD2O            MDMO
                     MD10*O          MDM*O           MD10J*O
                     MDMJ*O          MD2O2           MD3O2
                     MD4O2           MD5O2           MD6O2
                     MD7O2           MD8O2           MD9O2
                     MD10O2          MDMO2           MN9J
                     MN8J            MN7J            MN6J
                     MN5J            MN4J            MN3J
                     MN2J            MNMJ            MN8D
                     MN8D2J          MN8D7J          MN9*O
                     MN9J*O          MN6D8D          MO8J
                     MO7J            MO6J            MO5J
                     MO4J            MO3J            MO2J
                     MAMJ            MO7D            MO7D2J
                     MO7D6J          MO8*O           MO8J*O
                     MO5D7D          MS7J            MS6J
                     MS5J            MS4J            MS3J
                     MS2J            MSMJ            MS6D
                     MS6D2J          MS6D5J          MS7*O
                     MS7J*O          MS4D6D          C9H19-1
                     C9H19-2         C9H19-3         C9H19-4
                     C9H19-5         C9H18-1         C9H17
                     C9H16           C8H17-1         C8H17-2
                     C8H17-3         C8H17-4         C8H16-1
                     C8H15           C8H14           NC6H13CHO
                     NC7H15CHO       NC8H17CHO       NC6H13CO
                     NC7H15CO        NC8H17CO        NC9H19CO
                     C8H17CHCO       C7H15CHCO       C6H13CHCO
                     C5H11CHCO       C4H9CHCO        C3H7CHCO
                     C6H10           C7H12           MFMO2
                     MF2O2           MF3O2           MF4O2
                     MF5O2           MF5OOH          MF4OOH
                     MF3OOH          MF2OOH          MFMOOH
                     MFMO            MF2O            MF3O
                     MF4O            MF5O            MFMOOH2J
                     MFMOOH3J        MF2OOHMJ        MF2OOH3J
                     MF2OOH4J        MF2OOH5J        MF3OOHMJ
                     MF3OOH2J        MF3OOH4J        MF3OOH5J
                     MF4OOH3J        MF4OOH2J        MF4OOH5J
                     MF5OOH4J        MF5OOH3J        MF5OOH2J
                     MFOM-2          MFOM-3          MFO2-3
                     MFO2-4          MFO2-5          MFO3-4
                     MFO3-5          MFO4-5          MF2*O5J
                     MF3*O5J         MF4*O5J         MFMOOH2O2
                     MFMOOH3O2       MF2OOHMO2       MF2OOH3O2
                     MF2OOH4O2       MF2OOH5O2       MF3OOHMO2
                     MF3OOH2O2       MF3OOH4O2       MF3OOH5O2
                     MF4OOH3O2       MF4OOH2O2       MF4OOH5O2
                     MF5OOH4O2       MF5OOH3O2       MF5OOH2O2
                     MFKETM2         MFKETM3         MFKET2M
                     MFKET23         MFKET24         MFKET25
                     MFKET3M         MFKET32         MFKET34
                     MFKET35         MFKET43         MFKET42
                     MFKET45         MFKET54         MFKET53
                     MFKET52         FAOJ2*O         FAOJ3*O
                     MBMOO           MB2OO           MB3OO
                     MB4OO           MB4OOH          MB3OOH
                     MB2OOH          MBMOOH          MBMOOH2J
                     MBMOOH3J        MB2OOHMJ        MB2OOH3J
                     MB2OOH4J        MB3OOHMJ        MB3OOH2J
                     MB3OOH4J        MB4OOH3J        MB4OOH2J
                     MBOM-2          MBOM-3          MBO2-3
                     MBO2-4          MBO3-4          MB2*O4J
                     MB3*O4J         MBMOOH2O2       MBMOOH3O2
                     MB2OOHMO2       MB2OOH3O2       MB2OOH4O2
                     MB3OOHMO2       MB3OOH2O2       MB3OOH4O2
                     MB4OOH3O2       MB4OOH2O2       MBKETM2
                     MBKETM3         MBKET2M         MBKET23
                     MBKET24         MBKET3M         MBKET32
                     MBKET34         MBKET43         MBKET42
                     MPMO2           MP2O2           MP3O2
                     MP3O            MP2O            MPMO
                     MP3OOH          MP2OOH          MPMOOH
                     MPMOOH2J        MPMOOH3J        MP2OOHMJ
                     MP2OOH3J        MP3OOHMJ        MP3OOH2J
                     MPOM-2          MPOM-3          MPO2-3
                     MPM*O2J         MPM*O3J         MP2*OMJ
                     MP2*O3J         MP3*OMJ         MP3*O2J
                     MPMOOH2O2       MPMOOH3O2       MP2OOHMO2
                     MP2OOH3O2       MP3OOHMO2       MP3OOH2O2
                     MPKETM2         MPKETM3         MPKET2M
                     MPKET23         MPKET3M         MPKET32
                     MPKETM2O        MPKETM3O        MPKET2MO
                     MPKET23O        MPKET3MO        MPKET32O
                     ME2O2           MEMO2           MEMO
                     ME2O            ME2OOH          MEMOOH
                     MEMOOH2J        ME2OOHMJ        MEOM-2
                     ME2*OMJ         MEM*O2J         MEMOOH2O2
                     ME2OOHMO2       MEKETM2         MEKET2M
                     MEKETM2O        MEKET2MO        CH3COC3H6
                     C2H5COC2H4      C2H5COC3H6      C2H5COC4H8
                     C3H7COCH2       CHOCO2J         DAOJ2*O
                     DAOJ3*O         C2H4CHO         C3H6CHO
                     C2H4COCH3       CHOCH2CO        CH3COCH2CO
                     C2H5COCH2CO     C3H7COCH2CO     C4H9COCH2CO
                     COCO            HCOCO           CH3COCO
                     C2H5COCO        C3H7COCO        MPM*O2D
                     MP3*O2D         MBM*O3D         MB2*O3D
                     MB4*O3D         MF2*O4D         MF3*O4D
                     MF5*O4D         C7H15COCHCO     C2H3COC2H5
                     C4H7CHO         C5H9CHO         C4H7CO
                     C5H9CO          BAOJ2*O         BAOJ3*O
                     PAOJ            PAOJ2*O         PAOJ3*O
                     EAOJ2*O         C2H5COCHCO      C3H7COCHCO
                     C4H9COCHCO      C3H7COCH3       C4H9COCH3
                     CHOCHCO         MPMJ*O2D        MBMJ*O3D
                     MBMJ2*O3D       BAOJ3D          C2H3COCO
                     AC3H5COCO       C2H3COCH2CO     C2H3COCH2
                     AC3H5COCH2CO    AC3H5COCH2      C4H7COCO
                     C2H3COC2H4CO    C5H9COCO        MB4OO2*O
                     MB4OOH2*O       MB4O2*O""",
          reactions='all',
          initial_state=state(temperature=300.0, pressure=OneAtm))

#-------------------------------------------------------------------------------
# Species data
#-------------------------------------------------------------------------------

species(name='H',
        atoms='H:1',
        thermo=(NASA([300.00, 1000.00],
                     [ 2.50000000E+00,  0.00000000E+00,  0.00000000E+00,
                       0.00000000E+00,  0.00000000E+00,  2.54716300E+04,
                      -4.60117600E-01]),
                NASA([1000.00, 5000.00],
                     [ 2.50000000E+00,  0.00000000E+00,  0.00000000E+00,
                       0.00000000E+00,  0.00000000E+00,  2.54716300E+04,
                      -4.60117600E-01])),
        note='120186')

species(name='H2',
        atoms='H:2',
        thermo=(NASA([300.00, 1000.00],
                     [ 3.29812400E+00,  8.24944200E-04, -8.14301500E-07,
                      -9.47543400E-11,  4.13487200E-13, -1.01252100E+03,
                      -3.29409400E+00]),
                NASA([1000.00, 5000.00],
                     [ 2.99142300E+00,  7.00064400E-04, -5.63382900E-08,
                      -9.23157800E-12,  1.58275200E-15, -8.35034000E+02,
                      -1.35511000E+00])),
        note='121286')

species(name='O',
        atoms='O:1',
        thermo=(NASA([300.00, 1000.00],
                     [ 2.94642900E+00, -1.63816600E-03,  2.42103200E-06,
                      -1.60284300E-09,  3.89069600E-13,  2.91476400E+04,
                       2.96399500E+00]),
                NASA([1000.00, 5000.00],
                     [ 2.54206000E+00, -2.75506200E-05, -3.10280300E-09,
                       4.55106700E-12, -4.36805200E-16,  2.92308000E+04,
                       4.92030800E+00])),
        note='120186')

species(name='O2',
        atoms='O:2',
        thermo=(NASA([300.00, 1000.00],
                     [ 3.21293600E+00,  1.12748600E-03, -5.75615000E-07,
                       1.31387700E-09, -8.76855400E-13, -1.00524900E+03,
                       6.03473800E+00]),
                NASA([1000.00, 5000.00],
                     [ 3.69757800E+00,  6.13519700E-04, -1.25884200E-07,
                       1.77528100E-11, -1.13643500E-15, -1.23393000E+03,
                       3.18916600E+00])),
        note='121386')

species(name='OH',
        atoms='O:1 H:1',
        thermo=(NASA([300.00, 1710.00],
                     [ 3.41896226E+00,  3.19255801E-04, -3.08292717E-07,
                       3.64407494E-10, -1.00195479E-13,  3.45264448E+03,
                       2.54433372E+00]),
                NASA([1710.00, 5000.00],
                     [ 2.85376040E+00,  1.02994334E-03, -2.32666477E-07,
                       1.93750704E-11, -3.15759847E-16,  3.69949720E+03,
                       5.78756825E+00])),
        note='7/13/0RUCIC')

species(name='H2O',
        atoms='O:1 H:2',
        thermo=(NASA([300.00, 1000.00],
                     [ 3.38684200E+00,  3.47498200E-03, -6.35469600E-06,
                       6.96858100E-09, -2.50658800E-12, -3.02081100E+04,
                       2.59023300E+00]),
                NASA([1000.00, 5000.00],
                     [ 2.67214600E+00,  3.05629300E-03, -8.73026000E-07,
                       1.20099600E-10, -6.39161800E-15, -2.98992100E+04,
                       6.86281700E+00])),
        note='20387')

species(name='N2',
        atoms='N:2',
        thermo=(NASA([300.00, 1000.00],
                     [ 3.29867700E+00,  1.40824000E-03, -3.96322200E-06,
                       5.64151500E-09, -2.44485500E-12, -1.02090000E+03,
                       3.95037200E+00]),
                NASA([1000.00, 5000.00],
                     [ 2.92664000E+00,  1.48797700E-03, -5.68476100E-07,
                       1.00970400E-10, -6.75335100E-15, -9.22797700E+02,
                       5.98052800E+00])),
        note='121286')

species(name='HO2',
        atoms='O:2 H:1',
        thermo=(NASA([200.00, 1000.00],
                     [ 4.30179801E+00, -4.74912051E-03,  2.11582891E-05,
                      -2.42763894E-08,  9.29225124E-12,  2.94808040E+02,
                       3.71666245E+00]),
                NASA([1000.00, 3500.00],
                     [ 4.01721090E+00,  2.23982013E-03, -6.33658150E-07,
                       1.14246370E-10, -1.07908535E-14,  1.11856713E+02,
                       3.78510215E+00])),
        note='L5/89')

species(name='H2O2',
        atoms='O:2 H:2',
        thermo=(NASA([300.00, 1000.00],
                     [ 3.38875400E+00,  6.56922600E-03, -1.48501300E-07,
                      -4.62580600E-09,  2.47151500E-12, -1.76631500E+04,
                       6.78536300E+00]),